14
XYZ file
N      -0.582127    0.606961    1.110451
C      -1.720127   -0.305039    1.039451
C      -1.771127   -1.230039    2.249451
O      -2.843127   -1.459039    2.820451
C      -1.656127   -1.123039   -0.249549
O      -1.522127   -0.240039   -1.368549
C      -2.916127   -1.954039   -0.417549
H       0.125873    0.581961    0.390451
H      -2.634127    0.288961    1.023451
H      -0.792127   -1.786039   -0.210549
H      -0.988127    0.516961   -1.117549
H      -2.852127   -2.530039   -1.340549
H      -3.018127   -2.634039    0.428451
H      -3.783127   -1.295039   -0.459549
