14
XYZ file
N      -0.311671    1.540181    0.894813
C      -0.188671    0.173181    0.413813
C      -0.053671    0.196181   -1.099187
O      -0.512671    1.121181   -1.768187
C      -1.389671   -0.701819    0.817813
O      -2.594671   -0.154819    0.270813
C      -1.516671   -0.792819    2.326813
H      -0.963671    2.158181    0.432813
H       0.716329   -0.262819    0.836813
H      -1.244671   -1.704819    0.415813
H      -2.618671    0.791181    0.431813
H      -2.372671   -1.416819    2.582813
H      -0.609671   -1.232819    2.741813
H      -1.657671    0.206181    2.740813
