14
XYZ file
N       2.271346   -1.605220   -1.428929
C       2.588346   -0.529220   -0.501929
C       3.357346    0.569780   -1.221929
O       4.395346    0.305780   -1.835929
C       3.413346   -1.053220    0.676071
O       2.604346   -1.908220    1.493071
C       3.941346    0.097780    1.514071
H       3.011346   -2.230220   -1.714929
H       1.657346   -0.111220   -0.118929
H       4.256346   -1.626220    0.290071
H       2.270346   -2.636220    0.963071
H       4.525346   -0.296220    2.346071
H       4.573346    0.735780    0.897071
H       3.104346    0.679780    1.900071
