14
XYZ file
N      -0.787599    0.416954    1.690355
C      -1.071599   -0.366046    0.499355
C      -0.616599   -1.793046    0.747355
O       0.356401   -2.016046    1.464355
C      -0.364599    0.200954   -0.736645
O       1.009401   -0.199046   -0.725645
C      -0.441599    1.720954   -0.761645
H       0.172401    0.497954    1.994355
H      -2.147599   -0.364046    0.323355
H      -0.842599   -0.194046   -1.632645
H       1.412401    0.060954    0.106355
H      -0.287599    2.075954   -1.780645
H      -1.422599    2.040954   -0.409645
H       0.330401    2.134954   -0.112645
