14
XYZ file
N      -1.777122   -1.245261   -3.199270
C      -1.833122   -0.777261   -1.822270
C      -2.927122   -1.470261   -1.023270
O      -2.746122   -1.705261    0.173730
C      -2.040122    0.736739   -1.793270
O      -1.207122    1.349739   -2.784270
C      -1.684122    1.301739   -0.431270
H      -1.959122   -0.594261   -3.950270
H      -0.876122   -0.998261   -1.349270
H      -3.084122    0.960739   -2.013270
H      -1.350122    2.298739   -2.780270
H      -1.839122    2.380739   -0.433270
H      -2.319122    0.845739    0.328730
H      -0.639122    1.084739   -0.210270
