14
XYZ file
N      -2.231893   -0.617459    2.594151
C      -0.916893   -0.149459    2.164151
C      -0.979893    1.268541    1.600151
O      -0.088893    2.086541    1.860151
C      -0.326893   -1.115459    1.136151
O      -0.319893   -2.440459    1.674151
C       1.096107   -0.723459    0.789151
H      -2.681893   -1.370459    2.093151
H      -0.259893   -0.138459    3.034151
H      -0.935893   -1.096459    0.233151
H      -1.196893   -2.822459    1.596151
H       1.498107   -1.423459    0.056151
H       1.104107    0.283541    0.372151
H       1.710107   -0.748459    1.690151
