56

O          0.97053       -0.12001       -0.23960
C          2.19412       -0.10550       -0.10354
C          2.90866        1.03352        0.65066
N          4.25687        0.78926        1.17488
C          4.62109       -0.26745        1.98401
O          3.68151       -1.24018        1.98179
C          3.84602       -2.49211        2.69623
C          4.09874       -2.24468        4.18565
C          2.50128       -3.21709        2.50880
C          4.95345       -3.34863        2.07126
O          5.68715       -0.32901        2.57959
C          4.97429        2.04434        1.28631
C          4.27038        3.00907        0.33830
C          3.17211        2.18406       -0.32504
N          3.02937       -1.00678       -0.70858
C          2.55131       -2.19956       -1.35146
C          2.95345       -2.18072       -2.79494
C          2.11143       -1.58075       -3.73732
C          2.50410       -1.46088       -5.07212
O          1.72508       -0.88006       -6.04561
C          0.43839       -0.41129       -5.65872
C          3.77696       -1.93670       -5.47808
C          4.25376       -1.81377       -6.80016
C          5.51821       -2.27910       -7.16726
C          6.33416       -2.88932       -6.22252
C          5.88927       -3.02687       -4.90881
C          4.62471       -2.55228       -4.52361
C          4.20113       -2.66898       -3.19466
H          2.28106        1.34830        1.49395
H          3.50597       -1.40025        4.55202
H          5.15075       -2.00347        4.37315
H          3.86589       -3.12888        4.78764
H          1.66010       -2.51695        2.56831
H          2.35269       -4.00975        3.24867
H          2.44139       -3.68169        1.51703
H          5.93904       -2.88747        2.18585
H          4.79399       -3.47410        0.99406
H          4.99048       -4.34209        2.53216
H          6.03584        1.90732        1.06407
H          4.88189        2.40270        2.31997
H          4.96235        3.42501       -0.40147
H          3.83969        3.85046        0.89270
H          3.54662        1.79998       -1.28403
H          2.27436        2.77103       -0.54110
H          4.02498       -0.90735       -0.55372
H          1.46375       -2.30029       -1.24667
H          2.99932       -3.05699       -0.83867
H          1.15860       -1.19374       -3.38761
H         -0.05264       -0.00684       -6.54864
H          0.51846        0.39950       -4.92674
H         -0.18472       -1.22849       -5.27944
H          3.63364       -1.33765       -7.55717
H          5.86121       -2.16140       -8.19146
H          7.31766       -3.25488       -6.50527
H          6.54415       -3.50421       -4.18290
H          4.85835       -3.12262       -2.45451
