14
XYZ file
N      -0.028794   -0.835454    1.035598
C      -0.204794    0.567546    1.396598
C      -1.593794    0.844546    1.963598
O      -1.724794    1.555546    2.966598
C       0.060206    1.462546    0.187598
O       1.375206    1.209546   -0.314402
C      -0.050794    2.923546    0.577598
H       0.010206   -1.105454    0.063598
H       0.528206    0.812546    2.164598
H      -0.670794    1.241546   -0.590402
H       1.318206    0.911546   -1.225402
H       0.140206    3.548546   -0.294402
H       0.681206    3.148546    1.353598
H      -1.053794    3.123546    0.954598
