14
XYZ file
N       1.202686   -0.805654    1.726503
C       0.985686   -0.180654    0.431503
C       1.520686    1.243346    0.365503
O       1.421686    1.877346   -0.687497
C      -0.508314   -0.180654    0.083503
O      -1.207314    0.721346    0.949503
C      -1.092314   -1.570654    0.236503
H       0.586686   -0.561654    2.489503
H       1.507686   -0.772654   -0.320497
H      -0.633314    0.147346   -0.948497
H      -1.088314    0.446346    1.861503
H      -2.152314   -1.549654   -0.014497
H      -0.970314   -1.904654    1.266503
H      -0.574314   -2.257654   -0.432497
