14
XYZ file
N      -0.360606    0.676079    0.950200
C      -0.505606   -0.256921   -0.153800
C      -1.166606   -1.536921    0.335200
O      -0.947606   -1.979921    1.463200
C       0.842394   -0.599921   -0.802800
O       1.747394   -1.101921    0.187200
C       1.448394    0.606079   -1.483800
H       0.347394    0.495079    1.647200
H      -1.147606    0.197079   -0.908800
H       0.680394   -1.375921   -1.550800
H       1.779394   -0.493921    0.929200
H       2.402394    0.329079   -1.932800
H       1.608394    1.395079   -0.749800
H       0.771394    0.964079   -2.259800
