14
XYZ file
N       1.632948   -0.565058   -2.400284
C       1.235948    0.185942   -1.218284
C       2.335948    1.174942   -0.869284
O       3.517948    0.910942   -1.101284
C       0.949948   -0.721058   -0.014284
O       2.169948   -1.288058    0.470716
C      -0.006052   -1.832058   -0.386284
H       2.417948   -1.198058   -2.334284
H       0.329948    0.744942   -1.452284
H       0.500948   -0.122058    0.778716
H       2.452948   -0.815058    1.256716
H      -0.191052   -2.460058    0.485716
H      -0.946052   -1.402058   -0.730284
H       0.429948   -2.435058   -1.182284
