14
XYZ file
N      -0.753440   -0.977500    1.591075
C      -0.059440    0.294500    1.697075
C      -0.884440    1.242500    2.556075
O      -2.064440    1.009500    2.822075
C       0.201560    0.914500    0.314075
O      -1.041440    1.112500   -0.368925
C       1.100560    0.018500   -0.529925
H      -1.714440   -0.975500    1.281075
H       0.898560    0.126500    2.188075
H       0.689560    1.880500    0.446075
H      -1.526440    1.826500    0.051075
H       1.267560    0.482500   -1.501925
H       0.620560   -0.950500   -0.667925
H       2.056560   -0.117500   -0.023925
