55

O          1.54294       -1.18052        0.03295
C          2.40700       -0.30353        0.00835
C          3.02877        0.14717       -1.32691
N          3.65792        1.46232       -1.44180
C          2.98960        2.58116       -0.99195
O          3.50225        3.76102       -1.43049
C          3.02181        5.00211       -0.82448
C          3.45783        5.07659        0.64918
C          3.69320        6.14101       -1.61219
C          1.49913        5.18745       -0.94564
O          2.06024        2.49841       -0.19786
C          4.61071        1.44929       -2.54001
C          4.96512       -0.02624       -2.75302
C          4.18290       -0.78643       -1.68583
N          2.97397        0.20865        1.14903
C          2.35599        0.01631        2.43727
C          3.30235       -0.70011        3.35790
C          3.33978       -2.09822        3.37850
C          4.27173       -2.79279        4.17297
C          4.26906       -4.30296        4.14309
F          3.29690       -4.83620        3.34903
F          5.44094       -4.82350        3.68086
F          4.07415       -4.85565        5.37389
C          5.20399       -2.06484        4.95730
C          6.20055       -2.67045        5.76026
C          7.10692       -1.91037        6.50029
C          7.04237       -0.52271        6.47045
C          6.06979        0.10293        5.69384
C          5.15577       -0.64876        4.93691
C          4.20867        0.01417        4.14363
H          2.24014        0.11410       -2.08963
H          4.47771        4.70220        0.78515
H          2.80866        4.46704        1.28801
H          3.40553        6.10102        1.03536
H          4.72316        5.89192       -1.88639
H          3.69681        7.08059       -1.04770
H          3.15677        6.33193       -2.54981
H          0.93618        4.47916       -0.33139
H          1.16848        5.03931       -1.97877
H          1.19778        6.18776       -0.61582
H          5.47996        2.07299       -2.31789
H          4.11557        1.84557       -3.43496
H          6.04137       -0.20859       -2.66110
H          4.66530       -0.35742       -3.75407
H          4.83062       -0.96050       -0.81621
H          3.83575       -1.76528       -2.03154
H          3.58596        1.00792        1.03905
H          1.41225       -0.53489        2.35274
H          2.10380        1.00642        2.83472
H          2.63984       -2.65134        2.74946
H          6.29196       -3.75466        5.81904
H          7.86645       -2.40522        7.10224
H          7.74880        0.07124        7.04352
H          6.03662        1.19119        5.68127
H          4.18526        1.10245        4.12172
