52

O          1.09627        0.16284       -0.15871
C          2.31770        0.05577       -0.07774
C          3.04518       -1.29361       -0.26484
N          4.31548       -1.56852        0.41561
C          4.51523       -1.04996        1.69098
O          5.76213       -1.31846        2.17104
C          6.21508       -0.60926        3.36212
C          5.26250       -0.80342        4.55279
C          7.58360       -1.21692        3.72088
C          6.41369        0.87988        3.03755
O          3.70844       -0.33018        2.25648
C          4.61979       -2.97548        0.22060
C          3.26050       -3.65218       -0.03650
C          2.21921       -2.53061        0.03793
N          3.16667        1.13837       -0.02037
C          2.71107        2.48755        0.20507
C          3.22469        3.35725       -0.90773
C          4.46248        4.00265       -0.81361
C          4.98329        4.68676       -1.91525
C          4.28086        4.72858       -3.13137
C          4.80721        5.36464       -4.26646
C          4.09808        5.37740       -5.47011
C          2.85111        4.76477       -5.55223
C          2.31382        4.12933       -4.43450
C          3.02064        4.09533       -3.22451
C          2.50750        3.42091       -2.11013
H          3.29543       -1.31056       -1.33874
H          4.92830       -1.84340        4.62299
H          4.36574       -0.18043        4.46748
H          5.73503       -0.51755        5.49850
H          7.60813       -2.29399        3.52489
H          7.84058       -1.04835        4.77308
H          8.38616       -0.77053        3.12101
H          5.47891        1.36468        2.73751
H          7.10255        1.00485        2.19304
H          6.81488        1.42591        3.89743
H          5.12968       -3.42703        1.07953
H          5.25836       -3.06885       -0.66363
H          3.04779       -4.43822        0.69515
H          3.25446       -4.11844       -1.02888
H          1.79073       -2.47645        1.04576
H          1.39749       -2.67667       -0.66997
H          4.15057        0.95431        0.11985
H          3.10785        2.81645        1.17243
H          1.61872        2.53654        0.26904
H          5.04007        3.95700        0.10577
H          5.95327        5.16959       -1.82723
H          5.78153        5.84562       -4.22466
H          4.52204        5.86381       -6.34461
H          2.29694        4.77452       -6.48693
H          1.34103        3.64888       -4.51432
H          1.55199        2.90020       -2.18061
