65

O          2.23510       -0.08129        1.12749
C          2.61981       -0.15426       -0.04089
C          3.13350        1.06287       -0.84064
N          2.85966        2.37689       -0.24104
C          1.63410        2.83325        0.17546
O          0.63687        1.98781       -0.16794
C         -0.72078        1.97063        0.42219
C         -1.39346        3.36540        0.50274
C         -1.42153        4.21620       -0.75699
C         -1.43270        1.00201       -0.56678
C         -2.79279        0.43389       -0.21375
C         -0.58334        1.37201        1.85307
C         -1.83570        1.30212        2.72321
O          1.47514        3.88650        0.77798
C          4.02775        3.23546       -0.25404
C          5.02999        2.50421       -1.13547
C          4.67279        1.04900       -0.88990
N          2.58036       -1.38888       -0.63356
C          3.34010       -1.86161       -1.77485
C          4.77690       -2.19162       -1.42526
C          5.15031       -2.65659       -0.15678
C          6.50006       -2.85582        0.17397
O          6.92957       -3.26796        1.41348
C          5.94866       -3.46821        2.42441
C          7.51262       -2.61515       -0.79394
C          8.88712       -2.77575       -0.52612
C          9.85899       -2.51163       -1.49798
C          9.47069       -2.08199       -2.76088
C          8.12051       -1.91959       -3.05175
C          7.13458       -2.18556       -2.08628
C          5.77489       -2.00742       -2.39365
H          2.69803        1.06249       -1.84577
H         -0.89695        3.95814        1.28152
H         -2.43100        3.25406        0.83806
H         -0.42179        4.39280       -1.16187
H         -1.85530        5.19416       -0.51676
H         -2.04714        3.76663       -1.53166
H         -0.76724        0.14641       -0.75569
H         -1.51110        1.49792       -1.54297
H         -2.69716       -0.38188        0.51230
H         -3.24749       -0.01652       -1.10420
H         -3.48097        1.18810        0.17008
H          0.15708        1.96731        2.40473
H         -0.15211        0.36727        1.78947
H         -2.36026        2.25974        2.78643
H         -1.56204        1.01626        3.74267
H         -2.54359        0.54767        2.37483
H          4.39799        3.33675        0.77013
H          3.78744        4.22459       -0.65465
H          6.07297        2.73285       -0.89781
H          4.86289        2.73979       -2.19398
H          5.09654        0.71115        0.05642
H          5.07425        0.42835       -1.68887
H          2.19285       -2.09235       -0.01849
H          3.30284       -1.09232       -2.55307
H          2.84464       -2.76119       -2.15317
H          4.37641       -2.81828        0.58708
H          6.46802       -3.75624        3.34359
H          5.27107       -4.28539        2.15528
H          5.39567       -2.54626        2.63235
H          9.21663       -3.10589        0.45877
H         10.91181       -2.64258       -1.26173
H         10.22498       -1.86446       -3.51575
H          7.84131       -1.57069       -4.04486
H          5.49884       -1.65522       -3.38417
